UCTE_2002_Winter_Offpeak_MatPower.m
function [baseMVA, bus, gen, branch, areas, gencost] = UCTE_2002_Winter_Offpeak_MatPower
%UCTE_2002_WINTER_OFFPEAK_MATPOWER  UCTE_2002_WINTER_OFFPEAK_MATPOWER
%  Please see 'help caseformat' for details on the case file format.
%  This data was converted from IEEE Common Data Format
%  (UCTE_2002_Winter_Offpeak.cf) on 25-Mar-2015 by cdf2matp, rev. 1.17
%  See end of file for warnings generated during conversion.
%
%03/11/02JOFORPT200.02000SPORTUG 100.0 SE

%% MATPOWER Case Format : Version 1

%%-----  Power Flow Data  -----%%
%% system MVA base
baseMVA = 100;

%% bus data
%	bus_i	type	Pd	Qd	Gs	Bs	area	Vm	Va	baseKV	zone	Vmax	Vmin
bus = [
	1	3	0	0	0	0	1	1.04	-5	380	201	1.06	0.94;
	2	1	650.96	0	0	0	1	1	-5	380	201	1.06	0.94;
	3	1	31.14	0	0	0	1	1	-5	380	201	1.06	0.94;
	4	2	0	0	0	0	1	1.04	-5	380	201	1.06	0.94;
	5	2	0	0	0	0	1	1.04	-5	380	201	1.06	0.94;
	6	1	726.75	0	0	0	1	1	-5	380	201	1.06	0.94;
	7	2	0	0	0	0	1	1.04	-5	380	201	1.06	0.94;
	8	2	0	0	0	0	1	1.04	-5	380	201	1.06	0.94;
	9	1	62.86	0	0	0	1	1	-5	380	201	1.06	0.94;
	10	1	153.93	0	0	0	1	1	-5	380	201	1.06	0.94;
	11	1	49.94	0	0	0	1	1	-5	380	201	1.06	0.94;
	12	1	62.86	0	0	0	1	1	-5	380	201	1.06	0.94;
	13	1	94	0	0	0	1	1	-5	380	201	1.06	0.94;
	14	2	0	0	0	0	1	1.04	-5	380	201	1.06	0.94;
	15	1	273.78	0	0	0	1	1	-5	380	201	1.06	0.94;
	16	1	62.86	0	0	0	1	1	-5	380	201	1.06	0.94;
	17	1	182.72	0	0	0	1	1	-5	380	201	1.06	0.94;
	18	1	156.28	0	0	0	1	1.04	-5	380	201	1.06	0.94;
	19	2	0	0	0	0	1	1.04	-5	380	201	1.06	0.94;
	20	1	574.58	-400	0	0	1	1	-5	380	201	1.06	0.94;
	21	1	327.24	-200	0	0	1	1	-5	380	201	1.06	0.94;
	22	1	153.34	-100	0	0	1	1	-5	380	201	1.06	0.94;
	23	2	0	0	0	0	1	1.04	-5	380	201	1.06	0.94;
	24	2	0	0	0	0	1	1.04	-5	380	201	1.06	0.94;
	25	1	264.24	0	0	0	2	1	-5	380	202	1.06	0.94;
	26	1	366.85	0	0	0	2	1	-5	380	203	1.06	0.94;
	27	2	0	0	0	0	2	1.04	-5	380	217	1.06	0.94;
	28	2	0	0	0	0	2	1.04	-5	380	217	1.06	0.94;
	29	2	0	0	0	0	2	1.04	-5	380	217	1.06	0.94;
	30	1	366.85	0	0	0	2	1	-5	380	203	1.06	0.94;
	31	2	0	0	0	0	2	1.04	-5	380	217	1.06	0.94;
	32	2	0	0	0	0	2	1.04	-5	380	217	1.06	0.94;
	33	2	0	0	0	0	2	1.04	-5	380	217	1.06	0.94;
	34	1	264.24	0	0	0	2	1	-5	380	202	1.06	0.94;
	35	1	118.52	0	0	0	2	1	-5	380	204	1.06	0.94;
	36	1	264.27	-300	0	0	2	1	-5	380	202	1.06	0.94;
	37	1	176.8	0	0	0	2	1	-5	380	205	1.06	0.94;
	38	1	118.52	0	0	0	2	1	-5	380	204	1.06	0.94;
	39	2	0	0	0	0	2	1.04	-5	380	217	1.06	0.94;
	40	1	264.27	-200	0	0	2	1	-5	380	202	1.06	0.94;
	41	1	176.8	0	0	0	2	1	-5	380	205	1.06	0.94;
	42	2	0	0	0	0	2	1.04	-5	380	217	1.06	0.94;
	43	1	176.8	0	0	0	2	1	-5	380	205	1.06	0.94;
	44	1	264.27	-200	0	0	2	1	-5	380	202	1.06	0.94;
	45	1	70.46	0	0	0	2	1	-5	380	213	1.06	0.94;
	46	2	0	0	0	0	2	1.04	-5	380	217	1.06	0.94;
	47	1	70.46	0	0	0	2	1	-5	380	213	1.06	0.94;
	48	1	176.8	0	0	0	2	1	-5	380	205	1.06	0.94;
	49	1	176.8	0	0	0	2	1	-5	380	205	1.06	0.94;
	50	2	0	0	0	0	2	1.04	-5	380	217	1.06	0.94;
	51	2	0	0	0	0	2	1.04	-5	380	217	1.06	0.94;
	52	2	0	0	0	0	2	1.04	-5	380	217	1.06	0.94;
	53	2	0	0	0	0	2	1.04	-5	380	217	1.06	0.94;
	54	2	0	0	0	0	2	1.04	-5	380	217	1.06	0.94;
	55	1	264.24	0	0	0	2	1	-5	380	202	1.06	0.94;
	56	1	70.46	0	0	0	2	1	-5	380	213	1.06	0.94;
	57	1	118.52	0	0	0	2	1	-5	380	204	1.06	0.94;
	58	1	176.8	0	0	0	2	1	-5	380	205	1.06	0.94;
	59	1	176.8	0	0	0	2	1	-5	380	205	1.06	0.94;
	60	1	70.46	0	0	0	2	1	-5	380	213	1.06	0.94;
	61	2	0	0	0	0	2	1.04	-5	380	217	1.06	0.94;
	62	1	176.8	0	0	0	2	1	-5	380	205	1.06	0.94;
	63	1	70.46	0	0	0	2	1	-5	380	213	1.06	0.94;
	64	2	0	0	0	0	2	1.04	-5	380	217	1.06	0.94;
	65	1	117.01	-100	0	0	2	1	-5	380	206	1.06	0.94;
	66	1	118.52	0	0	0	2	1	-5	380	208	1.06	0.94;
	67	1	44.66	0	0	0	2	1	-5	380	207	1.06	0.94;
	68	2	0	0	0	0	2	1.04	-5	380	217	1.06	0.94;
	69	1	70.46	0	0	0	2	1	-5	380	213	1.06	0.94;
	70	1	70.46	0	0	0	2	1	-5	380	213	1.06	0.94;
	71	2	0	0	0	0	2	1.04	-5	380	217	1.06	0.94;
	72	2	0	0	0	0	2	1.04	-5	380	217	1.06	0.94;
	73	1	70.46	0	0	0	2	1	-5	380	213	1.06	0.94;
	74	1	264.24	0	0	0	2	1	-5	380	202	1.06	0.94;
	75	2	0	0	0	0	2	1.04	-5	380	217	1.06	0.94;
	76	2	0	0	0	0	2	1.04	-5	380	217	1.06	0.94;
	77	1	117.01	-200	0	0	2	1	-5	380	206	1.06	0.94;
	78	2	0	0	0	0	2	1.04	-5	380	217	1.06	0.94;
	79	2	0	0	0	0	2	1.04	-5	380	217	1.06	0.94;
	80	2	0	0	0	0	2	1.04	-5	380	217	1.06	0.94;
	81	2	0	0	0	0	2	1.04	-5	380	217	1.06	0.94;
	82	1	117.01	-100	0	0	2	1	-5	380	206	1.06	0.94;
	83	2	0	0	0	0	2	1.04	-5	380	217	1.06	0.94;
	84	2	0	0	0	0	2	1.04	-5	380	217	1.06	0.94;
	85	1	44.66	0	0	0	2	1	-5	380	207	1.06	0.94;
	86	1	118.52	0	0	0	2	1	-5	380	208	1.06	0.94;
	87	2	0	0	0	0	2	1.04	-5	380	217	1.06	0.94;
	88	1	70.46	0	0	0	2	1	-5	380	213	1.06	0.94;
	89	1	44.66	0	0	0	2	1	-5	380	207	1.06	0.94;
	90	2	0	0	0	0	2	1.04	-5	380	217	1.06	0.94;
	91	2	0	0	0	0	2	1.04	-5	380	217	1.06	0.94;
	92	1	70.46	0	0	0	2	1	-5	380	213	1.06	0.94;
	93	1	118.52	0	0	0	2	1	-5	380	208	1.06	0.94;
	94	1	44.66	0	0	0	2	1	-5	380	207	1.06	0.94;
	95	1	70.46	0	0	0	2	1	-5	380	213	1.06	0.94;
	96	1	118.52	0	0	0	2	1	-5	380	208	1.06	0.94;
	97	2	0	0	0	0	2	1.04	-5	380	217	1.06	0.94;
	98	2	0	0	0	0	2	1.04	-5	380	217	1.06	0.94;
	99	1	70.46	0	0	0	2	1	-5	380	213	1.06	0.94;
	100	1	118.49	0	0	0	2	1	-5	380	208	1.06	0.94;
	101	2	0	0	0	0	2	1.04	-5	380	217	1.06	0.94;
	102	1	70.46	0	0	0	2	1	-5	380	213	1.06	0.94;
	103	1	100.08	0	0	0	2	1	-5	380	216	1.06	0.94;
	104	1	100.11	-100	0	0	2	1	-5	380	216	1.06	0.94;
	105	1	70.47	-350	0	0	2	1	-5	380	213	1.06	0.94;
	106	1	118.52	0	0	0	2	1	-5	380	208	1.06	0.94;
	107	1	100.11	-100	0	0	2	1	-5	380	216	1.06	0.94;
	108	1	100.11	-100	0	0	2	1	-5	380	216	1.06	0.94;
	109	1	70.44	-50	0	0	2	1	-5	380	213	1.06	0.94;
	110	1	70.46	0	0	0	2	1	-5	380	213	1.06	0.94;
	111	1	118.52	0	0	0	2	1	-5	380	208	1.06	0.94;
	112	1	70.47	-150	0	0	2	1	-5	380	213	1.06	0.94;
	113	1	70.46	0	0	0	2	1	-5	380	213	1.06	0.94;
	114	2	0	0	0	0	2	1.04	-5	380	217	1.06	0.94;
	115	1	118.52	0	0	0	2	1	-5	380	208	1.06	0.94;
	116	1	70.47	-150	0	0	2	1	-5	380	213	1.06	0.94;
	117	1	118.52	0	0	0	2	1	-5	380	208	1.06	0.94;
	118	1	118.52	0	0	0	2	1	-5	380	208	1.06	0.94;
	119	1	100.11	-100	0	0	2	1	-5	380	216	1.06	0.94;
	120	1	100.11	-100	0	0	2	1	-5	380	216	1.06	0.94;
	121	1	100.11	-100	0	0	2	1	-5	380	216	1.06	0.94;
	122	1	118.52	0	0	0	2	1	-5	380	208	1.06	0.94;
	123	1	70.44	-300	0	0	2	1	-5	380	213	1.06	0.94;
	124	1	118.51	-100	0	0	2	1	-5	380	208	1.06	0.94;
	125	1	70.47	-150	0	0	2	1	-5	380	213	1.06	0.94;
	126	2	0	0	0	0	2	1.04	-5	380	217	1.06	0.94;
	127	2	0	0	0	0	2	1.04	-5	380	217	1.06	0.94;
	128	2	0	0	0	0	2	1.04	-5	380	217	1.06	0.94;
	129	1	118.52	0	0	0	2	1	-5	380	208	1.06	0.94;
	130	1	118.52	0	0	0	2	1	-5	380	208	1.06	0.94;
	131	1	100.08	0	0	0	2	1	-5	380	216	1.06	0.94;
	132	2	0	0	0	0	2	1.04	-5	380	217	1.06	0.94;
	133	2	0	0	0	0	2	1.04	-5	380	217	1.06	0.94;
	134	1	118.52	0	0	0	2	1	-5	380	208	1.06	0.94;
	135	1	70.46	0	0	0	2	1	-5	380	213	1.06	0.94;
	136	2	0	0	0	0	2	1.04	-5	380	217	1.06	0.94;
	137	1	118.51	-100	0	0	2	1	-5	380	208	1.06	0.94;
	138	2	0	0	0	0	2	1.04	-5	380	217	1.06	0.94;
	139	1	118.52	0	0	0	2	1	-5	380	208	1.06	0.94;
	140	1	70.44	-100	0	0	2	1	-5	380	213	1.06	0.94;
	141	2	0	0	0	0	2	1.04	-5	380	217	1.06	0.94;
	142	1	70.44	-100	0	0	2	1	-5	380	213	1.06	0.94;
	143	2	0	0	0	0	2	1.04	-5	380	217	1.06	0.94;
	144	2	0	0	0	0	2	1.04	-5	380	217	1.06	0.94;
	145	1	483.7	-300	0	0	2	1	-5	380	214	1.06	0.94;
	146	1	483.7	-300	0	0	2	1	-5	380	214	1.06	0.94;
	147	1	483.7	-300	0	0	2	1	-5	380	214	1.06	0.94;
	148	1	88.79	-100	0	0	2	1	-5	380	215	1.06	0.94;
	149	1	483.7	-400	0	0	2	1	-5	380	214	1.06	0.94;
	150	1	300.29	-400	0	0	2	1	-5	380	210	1.06	0.94;
	151	1	483.7	-300	0	0	2	1	-5	380	214	1.06	0.94;
	152	2	0	0	0	0	2	1.04	-5	380	217	1.06	0.94;
	153	2	0	0	0	0	2	1.04	-5	380	217	1.06	0.94;
	154	1	483.7	-300	0	0	2	1	-5	380	214	1.06	0.94;
	155	1	88.8	0	0	0	2	1	-5	380	215	1.06	0.94;
	156	1	483.7	-300	0	0	2	1	-5	380	214	1.06	0.94;
	157	1	144.3	0	0	0	2	1	-5	380	212	1.06	0.94;
	158	1	88.8	0	0	0	2	1	-5	380	215	1.06	0.94;
	159	2	0	0	0	0	2	1.04	-5	380	217	1.06	0.94;
	160	2	0	0	0	0	2	1.04	-5	380	217	1.06	0.94;
	161	2	0	0	0	0	2	1.04	-5	380	217	1.06	0.94;
	162	2	0	0	0	0	2	1.04	-5	380	217	1.06	0.94;
	163	2	0	0	0	0	2	1.04	-5	380	217	1.06	0.94;
	164	2	0	0	0	0	2	1.04	-5	380	217	1.06	0.94;
	165	2	0	0	0	0	2	1.04	-5	380	217	1.06	0.94;
	166	2	0	0	0	0	2	1.04	-5	380	217	1.06	0.94;
	167	1	88.8	0	0	0	2	1	-5	380	215	1.06	0.94;
	168	1	88.8	0	0	0	2	1	-5	380	215	1.06	0.94;
	169	1	144.3	0	0	0	2	1	-5	380	212	1.06	0.94;
	170	1	300.32	-200	0	0	2	1	-5	380	210	1.06	0.94;
	171	1	88.8	0	0	0	2	1	-5	380	215	1.06	0.94;
	172	1	300.32	-200	0	0	2	1	-5	380	210	1.06	0.94;
	173	1	88.8	0	0	0	2	1	-5	380	215	1.06	0.94;
	174	2	0	0	0	0	2	1.04	-5	380	217	1.06	0.94;
	175	1	300.32	0	0	0	2	1	-5	380	210	1.06	0.94;
	176	2	0	0	0	0	2	1.04	-5	380	217	1.06	0.94;
	177	1	300.32	-200	0	0	2	1	-5	380	210	1.06	0.94;
	178	1	144.28	-200	0	0	2	1	-5	380	212	1.06	0.94;
	179	1	88.83	-250	0	0	2	1	-5	380	215	1.06	0.94;
	180	1	88.79	-100	0	0	2	1	-5	380	215	1.06	0.94;
	181	1	88.8	0	0	0	2	1	-5	380	215	1.06	0.94;
	182	1	88.8	0	0	0	2	1	-5	380	215	1.06	0.94;
	183	1	300.32	0	0	0	2	1	-5	380	210	1.06	0.94;
	184	2	0	0	0	0	2	1.04	-5	380	217	1.06	0.94;
	185	1	88.79	-100	0	0	2	1	-5	380	215	1.06	0.94;
	186	1	300.32	-200	0	0	2	1	-5	380	210	1.06	0.94;
	187	1	88.79	-100	0	0	2	1	-5	380	215	1.06	0.94;
	188	1	144.28	-200	0	0	2	1	-5	380	212	1.06	0.94;
	189	1	300.32	-200	0	0	2	1	-5	380	210	1.06	0.94;
	190	1	144.28	-100	0	0	2	1	-5	380	212	1.06	0.94;
	191	1	324.33	-200	0	0	2	1	-5	380	211	1.06	0.94;
	192	1	184.92	0	0	0	2	1	-5	380	209	1.06	0.94;
	193	1	324.32	-600	0	0	2	1	-5	380	211	1.06	0.94;
	194	1	324.32	-400	0	0	2	1	-5	380	211	1.06	0.94;
	195	1	324.33	-200	0	0	2	1	-5	380	211	1.06	0.94;
	196	1	184.92	0	0	0	2	1	-5	380	209	1.06	0.94;
	197	1	300.32	0	0	0	2	1	-5	380	210	1.06	0.94;
	198	1	184.92	0	0	0	2	1	-5	380	209	1.06	0.94;
	199	2	0	0	0	0	2	1.04	-5	380	217	1.06	0.94;
	200	1	184.92	0	0	0	2	1	-5	380	209	1.06	0.94;
...
];

%% generator data
%	bus	Pg	Qg	Qmax	Qmin	Vg	mBase	status	Pmax	Pmin
gen = [
	1	284.83	0	3000	-3000	1.04	100	1	23518.463	0;
	4	502.06	0	3000	-3000	1.04	100	1	602.06	0;
	5	197.93	0	3000	-3000	1.04	100	1	297.93	0;
	7	148.29	0	3000	-3000	1.04	100	1	248.29	0;
	8	153.32	0	3000	-3000	1.04	100	1	253.32	0;
	14	277.11	0	3000	-3000	1.04	100	1	377.11	0;
	19	481.32	0	3000	-3000	1.04	100	1	581.32	0;
	23	741.46	0	3000	-3000	1.04	100	1	841.46	0;
	24	791.1	0	3000	-3000	1.04	100	1	891.1	0;
	27	135.13	0	3000	-3000	1.04	100	1	235.13	0;
	28	618.88	0	3000	-3000	1.04	100	1	718.88	0;
	29	697.92	0	3000	-3000	1.04	100	1	797.92	0;
	31	135.13	0	3000	-3000	1.04	100	1	235.13	0;
	32	346.6	0	3000	-3000	1.04	100	1	446.6	0;
	33	453.35	0	3000	-3000	1.04	100	1	553.35	0;
	39	146.61	0	3000	-3000	1.04	100	1	246.61	0;
	42	257.65	0	3000	-3000	1.04	100	1	357.65	0;
	46	257.65	0	3000	-3000	1.04	100	1	357.65	0;
	50	257.65	0	3000	-3000	1.04	100	1	357.65	0;
	51	442.54	0	3000	-3000	1.04	100	1	542.54	0;
	52	257.65	0	3000	-3000	1.04	100	1	357.65	0;
	53	246.6	0	3000	-3000	1.04	100	1	346.6	0;
	54	348.62	0	3000	-3000	1.04	100	1	448.62	0;
	61	257.65	0	3000	-3000	1.04	100	1	357.65	0;
	64	135.13	0	3000	-3000	1.04	100	1	235.13	0;
	68	257.65	0	3000	-3000	1.04	100	1	357.65	0;
	71	257.65	0	3000	-3000	1.04	100	1	357.65	0;
	72	257.65	0	3000	-3000	1.04	100	1	357.65	0;
	75	257.65	0	3000	-3000	1.04	100	1	357.65	0;
	76	257.65	0	3000	-3000	1.04	100	1	357.65	0;
	78	257.65	0	3000	-3000	1.04	100	1	357.65	0;
	79	257.65	0	3000	-3000	1.04	100	1	357.65	0;
	80	257.65	0	3000	-3000	1.04	100	1	357.65	0;
	81	257.65	0	3000	-3000	1.04	100	1	357.65	0;
	83	257.65	0	3000	-3000	1.04	100	1	357.65	0;
	84	257.65	0	3000	-3000	1.04	100	1	357.65	0;
	87	257.65	0	3000	-3000	1.04	100	1	357.65	0;
	90	257.65	0	3000	-3000	1.04	100	1	357.65	0;
	91	257.65	0	3000	-3000	1.04	100	1	357.65	0;
	97	257.65	0	3000	-3000	1.04	100	1	357.65	0;
	98	257.65	0	3000	-3000	1.04	100	1	357.65	0;
	101	257.65	0	3000	-3000	1.04	100	1	357.65	0;
	114	257.65	0	3000	-3000	1.04	100	1	357.65	0;
	126	232.41	0	3000	-3000	1.04	100	1	332.41	0;
	127	257.65	0	3000	-3000	1.04	100	1	357.65	0;
	128	257.65	0	3000	-3000	1.04	100	1	357.65	0;
	132	351.32	0	3000	-3000	1.04	100	1	451.32	0;
	133	257.65	0	3000	-3000	1.04	100	1	357.65	0;
	136	744.54	0	3000	-3000	1.04	100	1	844.54	0;
	138	1388.41	0	3000	-3000	1.04	100	1	1488.41	0;
	141	734.41	0	3000	-3000	1.04	100	1	834.41	0;
	143	108.1	0	3000	-3000	1.04	100	1	208.1	0;
	144	720.22	0	3000	-3000	1.04	100	1	820.22	0;
	152	108.1	0	3000	-3000	1.04	100	1	208.1	0;
	153	257.65	0	3000	-3000	1.04	100	1	357.65	0;
	159	732.38	0	3000	-3000	1.04	100	1	832.38	0;
	160	212.15	0	3000	-3000	1.04	100	1	312.15	0;
	161	257.65	0	3000	-3000	1.04	100	1	357.65	0;
	162	257.65	0	3000	-3000	1.04	100	1	357.65	0;
	163	257.65	0	3000	-3000	1.04	100	1	357.65	0;
	164	1322.2	0	3000	-3000	1.04	100	1	1422.2	0;
	165	257.65	0	3000	-3000	1.04	100	1	357.65	0;
	166	257.65	0	3000	-3000	1.04	100	1	357.65	0;
	174	257.65	0	3000	-3000	1.04	100	1	357.65	0;
	176	692.52	0	3000	-3000	1.04	100	1	792.52	0;
	184	284.44	0	3000	-3000	1.04	100	1	384.44	0;
	199	257.65	0	3000	-3000	1.04	100	1	357.65	0;
	201	579.69	0	3000	-3000	1.04	100	1	679.69	0;
	207	77.02	0	3000	-3000	1.04	100	1	177.02	0;
	208	257.65	0	3000	-3000	1.04	100	1	357.65	0;
	215	508.75	0	3000	-3000	1.04	100	1	608.75	0;
	216	383.75	0	3000	-3000	1.04	100	1	483.75	0;
	217	314.88	0	3000	-3000	1.04	100	1	414.88	0;
	218	3673.55	0	3000	-3000	1.04	100	1	3773.55	0;
	224	655.32	0	3000	-3000	1.04	100	1	755.32	0;
	226	162.82	0	3000	-3000	1.04	100	1	262.82	0;
	228	1701.18	0	3000	-3000	1.04	100	1	1801.18	0;
	231	1749.3	0	3000	-3000	1.04	100	1	1849.3	0;
	233	688.94	0	3000	-3000	1.04	100	1	788.94	0;
	235	3498.63	0	3000	-3000	1.04	100	1	3598.63	0;
	244	3498.63	0	3000	-3000	1.04	100	1	3598.63	0;
	248	1345.62	0	3000	-3000	1.04	100	1	1445.62	0;
	250	1749.3	0	3000	-3000	1.04	100	1	1849.3	0;
	255	586.39	0	3000	-3000	1.04	100	1	686.39	0;
	257	739.64	0	3000	-3000	1.04	100	1	839.64	0;
	273	688.94	0	3000	-3000	1.04	100	1	788.94	0;
	274	134.56	0	3000	-3000	1.04	100	1	234.56	0;
	275	1574.39	0	3000	-3000	1.04	100	1	1674.39	0;
	278	672.81	0	3000	-3000	1.04	100	1	772.81	0;
	289	1029.4	0	3000	-3000	1.04	100	1	1129.4	0;
	300	688.94	0	3000	-3000	1.04	100	1	788.94	0;
	304	1749.3	0	3000	-3000	1.04	100	1	1849.3	0;
	313	493.84	0	3000	-3000	1.04	100	1	593.84	0;
	315	688.94	0	3000	-3000	1.04	100	1	788.94	0;
	344	767.47	0	3000	-3000	1.04	100	1	867.47	0;
	348	2422.12	0	3000	-3000	1.04	100	1	2522.12	0;
	352	1211.06	0	3000	-3000	1.04	100	1	1311.06	0;
	357	1749.3	0	3000	-3000	1.04	100	1	1849.3	0;
	370	2422.12	0	3000	-3000	1.04	100	1	2522.12	0;
	373	302.77	0	3000	-3000	1.04	100	1	402.77	0;
	387	166.85	0	3000	-3000	1.04	100	1	266.85	0;
	394	688.94	0	3000	-3000	1.04	100	1	788.94	0;
	398	1951.16	0	3000	-3000	1.04	100	1	2051.16	0;
	407	688.94	0	3000	-3000	1.04	100	1	788.94	0;
	422	2462.49	0	3000	-3000	1.04	100	1	2562.49	0;
	424	688.94	0	3000	-3000	1.04	100	1	788.94	0;
	427	672.81	0	3000	-3000	1.04	100	1	772.81	0;
	437	1749.3	0	3000	-3000	1.04	100	1	1849.3	0;
	439	688.94	0	3000	-3000	1.04	100	1	788.94	0;
	443	688.94	0	3000	-3000	1.04	100	1	788.94	0;
	444	688.94	0	3000	-3000	1.04	100	1	788.94	0;
	445	688.94	0	3000	-3000	1.04	100	1	788.94	0;
	449	2422.12	0	3000	-3000	1.04	100	1	2522.12	0;
	454	688.94	0	3000	-3000	1.04	100	1	788.94	0;
	458	134.56	0	3000	-3000	1.04	100	1	234.56	0;
	460	688.94	0	3000	-3000	1.04	100	1	788.94	0;
	461	694.61	0	3000	-3000	1.04	100	1	794.61	0;
	466	688.94	0	3000	-3000	1.04	100	1	788.94	0;
	467	810.6	0	3000	-3000	1.04	100	1	910.6	0;
	469	688.94	0	3000	-3000	1.04	100	1	788.94	0;
	478	1749.3	0	3000	-3000	1.04	100	1	1849.3	0;
	480	688.94	0	3000	-3000	1.04	100	1	788.94	0;
	486	688.94	0	3000	-3000	1.04	100	1	788.94	0;
	488	688.94	0	3000	-3000	1.04	100	1	788.94	0;
	490	1749.3	0	3000	-3000	1.04	100	1	1849.3	0;
	492	336.4	0	3000	-3000	1.04	100	1	436.4	0;
	493	688.94	0	3000	-3000	1.04	100	1	788.94	0;
	494	336.4	0	3000	-3000	1.04	100	1	436.4	0;
	497	688.94	0	3000	-3000	1.04	100	1	788.94	0;
	531	688.94	0	3000	-3000	1.04	100	1	788.94	0;
	535	3137.29	0	3000	-3000	1.04	100	1	3237.29	0;
	539	395.34	0	3000	-3000	1.04	100	1	495.34	0;
	540	477.41	0	3000	-3000	1.04	100	1	577.41	0;
	541	150.6	0	3000	-3000	1.04	100	1	250.6	0;
	545	521.94	0	3000	-3000	1.04	100	1	621.94	0;
	547	2230.45	0	3000	-3000	1.04	100	1	2330.45	0;
	548	313.26	0	3000	-3000	1.04	100	1	413.26	0;
	550	195.03	0	3000	-3000	1.04	100	1	295.03	0;
	551	876.51	0	3000	-3000	1.04	100	1	976.51	0;
	555	89.57	0	3000	-3000	1.04	100	1	189.57	0;
	556	192.05	0	3000	-3000	1.04	100	1	292.05	0;
	558	399.06	0	3000	-3000	1.04	100	1	499.06	0;
	559	986.69	0	3000	-3000	1.04	100	1	1086.69	0;
	569	49.46	0	3000	-3000	1.04	100	1	149.46	0;
	574	142.44	0	3000	-3000	1.04	100	1	242.44	0;
	575	175.58	0	3000	-3000	1.04	100	1	275.58	0;
	576	145.41	0	3000	-3000	1.04	100	1	245.41	0;
	577	266.73	0	3000	-3000	1.04	100	1	366.73	0;
	578	119.94	0	3000	-3000	1.04	100	1	219.94	0;
	579	87.24	0	3000	-3000	1.04	100	1	187.24	0;
	580	142.43	0	3000	-3000	1.04	100	1	242.43	0;
	581	252.24	0	3000	-3000	1.04	100	1	352.24	0;
	582	253.23	0	3000	-3000	1.04	100	1	353.23	0;
	583	72.7	0	3000	-3000	1.04	100	1	172.7	0;
	585	66.76	0	3000	-3000	1.04	100	1	166.76	0;
	592	126.12	0	3000	-3000	1.04	100	1	226.12	0;
	593	178.05	0	3000	-3000	1.04	100	1	278.05	0;
	594	176.07	0	3000	-3000	1.04	100	1	276.07	0;
	595	201.3	0	3000	-3000	1.04	100	1	301.3	0;
	596	811.61	0	3000	-3000	1.04	100	1	911.61	0;
	599	126.81	0	3000	-3000	1.04	100	1	226.81	0;
	601	857.85	0	3000	-3000	1.04	100	1	957.85	0;
	602	40.56	0	3000	-3000	1.04	100	1	140.56	0;
	603	49.47	0	3000	-3000	1.04	100	1	149.47	0;
	604	0	0	3000	-3000	1.04	100	1	100	0;
	606	0	0	3000	-3000	1.04	100	1	100	0;
	607	517.97	0	3000	-3000	1.04	100	1	617.97	0;
	610	547.64	0	3000	-3000	1.04	100	1	647.64	0;
	616	383.18	0	3000	-3000	1.04	100	1	483.18	0;
	617	1140.21	0	3000	-3000	1.04	100	1	1240.21	0;
	619	313.66	0	3000	-3000	1.04	100	1	413.66	0;
	621	1427.59	0	3000	-3000	1.04	100	1	1527.59	0;
	623	1017.28	0	3000	-3000	1.04	100	1	1117.28	0;
	624	762.96	0	3000	-3000	1.04	100	1	862.96	0;
	627	1085.1	0	3000	-3000	1.04	100	1	1185.1	0;
	629	320.76	0	3000	-3000	1.04	100	1	420.76	0;
	630	281.88	0	3000	-3000	1.04	100	1	381.88	0;
	631	535.97	0	3000	-3000	1.04	100	1	635.97	0;
	632	535.97	0	3000	-3000	1.04	100	1	635.97	0;
	634	1103.65	0	3000	-3000	1.04	100	1	1203.65	0;
	637	113.61	0	3000	-3000	1.04	100	1	213.61	0;
	638	507.88	0	3000	-3000	1.04	100	1	607.88	0;
	640	1415.77	0	3000	-3000	1.04	100	1	1515.77	0;
	645	622.43	0	3000	-3000	1.04	100	1	722.43	0;
	647	165.28	0	3000	-3000	1.04	100	1	265.28	0;
	658	294.36	0	3000	-3000	1.04	100	1	394.36	0;
	667	896.74	0	3000	-3000	1.04	100	1	996.74	0;
	669	464.02	0	3000	-3000	1.04	100	1	564.02	0;
	671	359.42	0	3000	-3000	1.04	100	1	459.42	0;
	675	438.49	0	3000	-3000	1.04	100	1	538.49	0;
	676	202.36	0	3000	-3000	1.04	100	1	302.36	0;
	677	934.5	0	3000	-3000	1.04	100	1	1034.5	0;
	679	431.31	0	3000	-3000	1.04	100	1	531.31	0;
	680	431.31	0	3000	-3000	1.04	100	1	531.31	0;
	681	787.29	0	3000	-3000	1.04	100	1	887.29	0;
	682	234.7	0	3000	-3000	1.04	100	1	334.7	0;
	690	114.58	0	3000	-3000	1.04	100	1	214.58	0;
	694	61.95	0	3000	-3000	1.04	100	1	161.95	0;
	697	133.96	0	3000	-3000	1.04	100	1	233.96	0;
	698	101	0	3000	-3000	1.04	100	1	201	0;
...
];

%% branch data
%	fbus	tbus	r	x	b	rateA	rateB	rateC	ratio	angle	status
branch = [
	1	2	0	0.02348	0	9900	0	0	1	0	1;
	1	2	0	0.02345	0	9900	0	0	1	0	1;
	1	79	0	0.02073	0	1260	0	0	1	0	1;
	6	2	0	0.01533	0	9900	0	0	1	0	1;
	6	2	0	0.01603	0	9900	0	0	1	0	1;
	4	3	0	0.05409	0	9900	0	0	1	0	1;
	5	3	0	0.08701	0	9900	0	0	1	0	1;
	4	8	0	0.10355	0	9900	0	0	1	0	1;
	8	4	0	0.10192	0	9900	0	0	1	0	1;
	5	7	0	0.03086	0	9900	0	0	1	0	1;
	6	7	0	0.03288	0	9900	0	0	1	0	1;
	6	7	0	0.06928	0	9900	0	0	1	0	1;
	6	7	0	0.07738	0	9900	0	0	1	0	1;
	7	6	0	0.0342	0	9900	0	0	1	0	1;
	10	6	0	0.06738	0	9900	0	0	1	0	1;
	20	6	0	0.08181	0	9900	0	0	1	0	1;
	20	6	0	0.08486	0	9900	0	0	1	0	1;
	7	8	0	0.03422	0	9900	0	0	1	0	1;
	8	7	0	0.10063	0	9900	0	0	1	0	1;
	9	8	0	0.0695	0	9900	0	0	1	0	1;
	9	8	0	0.07077	0	9900	0	0	1	0	1;
	8	127	0	0.0596	0	340	0	0	1	0	1;
	8	133	0	0.04468	0	340	0	0	1	0	1;
	11	9	0	0.05734	0	9900	0	0	1	0	1;
	13	9	0	0.06538	0	9900	0	0	1	0	1;
	12	10	0	0.04151	0	9900	0	0	1	0	1;
	13	11	0	0.03911	0	9900	0	0	1	0	1;
	12	15	0	0.04595	0	9900	0	0	1	0	1;
	15	13	0	0.10509	0	9900	0	0	1	0	1;
	15	13	0	0.10067	0	9900	0	0	1	0	1;
	15	14	0	0.0239	0	9900	0	0	1	0	1;
	15	16	0	0.05326	0	9900	0	0	1	0	1;
	15	17	0	0.07751	0	9900	0	0	1	0	1;
	17	16	0	0.05277	0	9900	0	0	1	0	1;
	20	17	0	0.05854	0	9900	0	0	1	0	1;
	20	17	0	0.04853	0	9900	0	0	1	0	1;
	19	18	0	0.02887	0	9900	0	0	1	0	1;
	18	165	0	0.00575	0	750	0	0	1	0	1;
	20	19	0	0.03769	0	9900	0	0	1	0	1;
	20	21	0	0.06336	0	9900	0	0	1	0	1;
	20	21	0	0.03603	0	9900	0	0	1	0	1;
	21	20	0	0.02275	0	9900	0	0	1	0	1;
	22	20	0	0.1024	0	9900	0	0	1	0	1;
	20	23	0	0.0365	0	9900	0	0	1	0	1;
	22	21	0	0.04487	0	9900	0	0	1	0	1;
	23	21	0	0.02735	0	9900	0	0	1	0	1;
	24	23	0	0.05243	0	9900	0	0	1	0	1;
	24	23	0	0.04553	0	9900	0	0	1	0	1;
	27	25	0	0.02092	0	9900	0	0	1	0	1;
	27	25	0	0.01888	0	9900	0	0	1	0	1;
	26	28	0	0.01544	0	9900	0	0	1	0	1;
	31	26	0	0.04173	0	9900	0	0	1	0	1;
	29	27	0	0.02338	0	9900	0	0	1	0	1;
	69	27	0	0.0358	0	9900	0	0	1	0	1;
	28	31	0	0.03084	0	9900	0	0	1	0	1;
	29	34	0	0.05167	0	9900	0	0	1	0	1;
	29	36	0	0.09907	0	9900	0	0	1	0	1;
	29	40	0	0.05288	0	9900	0	0	1	0	1;
	29	46	0	0.05976	0	9900	0	0	1	0	1;
	29	61	0	0.11974	0	9900	0	0	1	0	1;
	29	79	0	0.12431	0	9900	0	0	1	0	1;
	31	30	0	0.02725	0	9900	0	0	1	0	1;
	35	30	0	0.18509	0	9900	0	0	1	0	1;
	35	30	0	0.18427	0	9900	0	0	1	0	1;
	31	32	0	0.01114	0	9900	0	0	1	0	1;
	33	31	0	0.01922	0	9900	0	0	1	0	1;
	31	47	0	0.13426	0	9900	0	0	1	0	1;
	31	51	0	0.02187	0	9900	0	0	1	0	1;
	32	51	0	0.03249	0	9900	0	0	1	0	1;
	38	35	0	0.03555	0	9900	0	0	1	0	1;
	42	35	0	0.02622	0	9900	0	0	1	0	1;
	43	37	0	0.01839	0	9900	0	0	1	0	1;
	37	45	0	0.03107	0	9900	0	0	1	0	1;
	37	45	0	0.03587	0	9900	0	0	1	0	1;
	37	49	0	0.02353	0	9900	0	0	1	0	1;
	42	38	0	0.02651	0	9900	0	0	1	0	1;
	38	64	0	0.10463	0	9900	0	0	1	0	1;
	43	39	0	0.02113	0	9900	0	0	1	0	1;
	49	39	0	0.03257	0	9900	0	0	1	0	1;
	49	39	0	0.0209	0	9900	0	0	1	0	1;
	39	495	0	0.07118	0	1270	0	0	1	0	1;
	39	515	0	0.08438	0	420	0	0	1	0	1;
	44	40	0	0.04046	0	9900	0	0	1	0	1;
	45	41	0	0.02078	0	9900	0	0	1	0	1;
	41	48	0	0.04416	0	9900	0	0	1	0	1;
	54	42	0	0.03793	0	9900	0	0	1	0	1;
	57	42	0	0.04225	0	9900	0	0	1	0	1;
	45	60	0	0.07579	0	9900	0	0	1	0	1;
	45	64	0	0.01624	0	9900	0	0	1	0	1;
	70	45	0	0.0555	0	9900	0	0	1	0	1;
	45	88	0	0.1284	0	9900	0	0	1	0	1;
	55	46	0	0.06678	0	9900	0	0	1	0	1;
	47	63	0	0.05378	0	9900	0	0	1	0	1;
	48	49	0	0.03258	0	9900	0	0	1	0	1;
	48	59	0	0.03903	0	9900	0	0	1	0	1;
	58	49	0	0.04732	0	9900	0	0	1	0	1;
	59	49	0	0.01855	0	9900	0	0	1	0	1;
	64	49	0	0.04336	0	9900	0	0	1	0	1;
	49	65	0	0.11351	0	9900	0	0	1	0	1;
	49	65	0	0.1083	0	9900	0	0	1	0	1;
	63	50	0	0.06031	0	9900	0	0	1	0	1;
	51	54	0	0.03914	0	9900	0	0	1	0	1;
	63	51	0	0.04515	0	9900	0	0	1	0	1;
	105	51	0	0.02751	0	9900	0	0	1	0	1;
	56	52	0	0.02997	0	9900	0	0	1	0	1;
	69	53	0	0.01599	0	9900	0	0	1	0	1;
	54	70	0	0.02292	0	9900	0	0	1	0	1;
	55	74	0	0.04521	0	9900	0	0	1	0	1;
	57	56	0	0.09463	0	9900	0	0	1	0	1;
	56	88	0	0.07783	0	9900	0	0	1	0	1;
	59	58	0	0.03497	0	9900	0	0	1	0	1;
	59	95	0	0.09639	0	9900	0	0	1	0	1;
	88	60	0	0.08339	0	9900	0	0	1	0	1;
	61	63	0	0.12575	0	9900	0	0	1	0	1;
	79	61	0	0.06433	0	9900	0	0	1	0	1;
	61	80	0	0.06031	0	9900	0	0	1	0	1;
	67	62	0	0.02955	0	9900	0	0	1	0	1;
	63	69	0	0.00605	0	9900	0	0	1	0	1;
	63	73	0	0.0435	0	9900	0	0	1	0	1;
	76	63	0	0.02757	0	9900	0	0	1	0	1;
	80	63	0	0.02861	0	9900	0	0	1	0	1;
	63	105	0	0.23205	0	9900	0	0	1	0	1;
	64	67	0	0.03905	0	9900	0	0	1	0	1;
	70	64	0	0.0479	0	9900	0	0	1	0	1;
	64	95	0	0.07112	0	9900	0	0	1	0	1;
	97	64	0	0.07379	0	9900	0	0	1	0	1;
	65	77	0	0.05136	0	9900	0	0	1	0	1;
	82	65	0	0.04502	0	9900	0	0	1	0	1;
	66	86	0	0.01924	0	9900	0	0	1	0	1;
	67	85	0	0.07118	0	9900	0	0	1	0	1;
	88	67	0	0.11507	0	9900	0	0	1	0	1;
	68	69	0	0.04837	0	9900	0	0	1	0	1;
	69	73	0	0.0397	0	9900	0	0	1	0	1;
	69	105	0	0.20714	0	9900	0	0	1	0	1;
	69	105	0	0.06601	0	9900	0	0	1	0	1;
	105	69	0	0.03247	0	9900	0	0	1	0	1;
	73	70	0	0.05862	0	9900	0	0	1	0	1;
	73	70	0	0.05993	0	9900	0	0	1	0	1;
	70	95	0	0.02719	0	9900	0	0	1	0	1;
	79	71	0	0.0549	0	9900	0	0	1	0	1;
	80	71	0	0.05105	0	9900	0	0	1	0	1;
	80	71	0	0.05089	0	9900	0	0	1	0	1;
	72	83	0	0.02887	0	9900	0	0	1	0	1;
	74	79	0	0.06329	0	9900	0	0	1	0	1;
	74	79	0	0.02933	0	9900	0	0	1	0	1;
	77	75	0	0.12732	0	9900	0	0	1	0	1;
	75	84	0	0.07673	0	9900	0	0	1	0	1;
	75	107	0	0.07719	0	9900	0	0	1	0	1;
	75	531	0	0.04977	0	330	0	0	1	0	1;
	80	76	0	0.01579	0	9900	0	0	1	0	1;
	78	115	0	0.04348	0	9900	0	0	1	0	1;
	79	80	0	0.01766	0	9900	0	0	1	0	1;
	80	87	0	0.05234	0	9900	0	0	1	0	1;
	80	91	0	0.04809	0	9900	0	0	1	0	1;
	80	98	0	0.14331	0	9900	0	0	1	0	1;
	84	81	0	0.04475	0	9900	0	0	1	0	1;
	97	82	0	0.06533	0	9900	0	0	1	0	1;
	83	93	0	0.05018	0	9900	0	0	1	0	1;
	83	96	0	0.10203	0	9900	0	0	1	0	1;
	93	84	0	0.10716	0	9900	0	0	1	0	1;
	85	89	0	0.04601	0	9900	0	0	1	0	1;
	90	86	0	0.0734	0	9900	0	0	1	0	1;
	93	86	0	0.03013	0	9900	0	0	1	0	1;
	87	92	0	0.04796	0	9900	0	0	1	0	1;
	88	99	0	0.11827	0	9900	0	0	1	0	1;
	99	88	0	0.12187	0	9900	0	0	1	0	1;
	89	94	0	0.03254	0	9900	0	0	1	0	1;
	90	103	0	0.06485	0	9900	0	0	1	0	1;
	92	105	0	0.21646	0	9900	0	0	1	0	1;
	93	118	0	0.13996	0	9900	0	0	1	0	1;
	122	93	0	0.08512	0	9900	0	0	1	0	1;
	94	97	0	0.02965	0	9900	0	0	1	0	1;
	95	105	0	0.01991	0	9900	0	0	1	0	1;
	127	95	0	0.09607	0	9900	0	0	1	0	1;
	127	95	0	0.09022	0	9900	0	0	1	0	1;
	95	146	0	0.08139	0	9900	0	0	1	0	1;
	106	96	0	0.06157	0	9900	0	0	1	0	1;
	97	104	0	0.03486	0	9900	0	0	1	0	1;
	107	97	0	0.03857	0	9900	0	0	1	0	1;
	116	98	0	0.16496	0	9900	0	0	1	0	1;
	99	105	0	0.0583	0	9900	0	0	1	0	1;
	105	99	0	0.06619	0	9900	0	0	1	0	1;
	101	100	0	0.08493	0	9900	0	0	1	0	1;
	101	111	0	0.05131	0	9900	0	0	1	0	1;
	122	101	0	0.0295	0	9900	0	0	1	0	1;
	101	532	0	0.0424	0	1650	0	0	1	0	1;
	102	110	0	0.05339	0	9900	0	0	1	0	1;
	103	128	0	0.03647	0	9900	0	0	1	0	1;
	104	108	0	0.04456	0	9900	0	0	1	0	1;
	104	110	0	0.03123	0	9900	0	0	1	0	1;
	104	120	0	0.04252	0	9900	0	0	1	0	1;
	105	109	0	0.04398	0	9900	0	0	1	0	1;
	114	105	0	0.0701	0	9900	0	0	1	0	1;
	105	116	0	0.01375	0	9900	0	0	1	0	1;
	123	105	0	0.10867	0	9900	0	0	1	0	1;
	105	140	0	0.04299	0	9900	0	0	1	0	1;
	105	146	0	0.08242	0	9900	0	0	1	0	1;
	106	115	0	0.0319	0	9900	0	0	1	0	1;
	107	119	0	0.03008	0	9900	0	0	1	0	1;
	107	119	0	0.02432	0	9900	0	0	1	0	1;
...
];

%%-----  OPF Data  -----%%
%% area data
%	area	refbus
areas = [
	1	1;
];

%% generator cost data
%	1	startup	shutdown	n	x1	y1	...	xn	yn
%	2	startup	shutdown	n	c(n-1)	...	c0
gencost = [
	2	0	0	3	0.0351086613	20	0;
	2	0	0	3	0.0199179381	20	0;
	2	0	0	3	0.0505229121	20	0;
	2	0	0	3	0.0674354306	20	0;
	2	0	0	3	0.0652230629	20	0;
	2	0	0	3	0.0360867526	20	0;
	2	0	0	3	0.0207761988	20	0;
	2	0	0	3	0.0134869042	20	0;
	2	0	0	3	0.012640627	20	0;
	2	0	0	3	0.0740028121	20	0;
	2	0	0	3	0.0161582213	20	0;
	2	0	0	3	0.0143282898	20	0;
	2	0	0	3	0.0740028121	20	0;
	2	0	0	3	0.0288517023	20	0;
	2	0	0	3	0.0220580126	20	0;
	2	0	0	3	0.0682081713	20	0;
	2	0	0	3	0.0388123423	20	0;
	2	0	0	3	0.0388123423	20	0;
	2	0	0	3	0.0388123423	20	0;
	2	0	0	3	0.0225968274	20	0;
	2	0	0	3	0.0388123423	20	0;
	2	0	0	3	0.0405515004	20	0;
	2	0	0	3	0.0286845276	20	0;
	2	0	0	3	0.0388123423	20	0;
	2	0	0	3	0.0740028121	20	0;
	2	0	0	3	0.0388123423	20	0;
	2	0	0	3	0.0388123423	20	0;
	2	0	0	3	0.0388123423	20	0;
	2	0	0	3	0.0388123423	20	0;
	2	0	0	3	0.0388123423	20	0;
	2	0	0	3	0.0388123423	20	0;
	2	0	0	3	0.0388123423	20	0;
	2	0	0	3	0.0388123423	20	0;
	2	0	0	3	0.0388123423	20	0;
	2	0	0	3	0.0388123423	20	0;
	2	0	0	3	0.0388123423	20	0;
	2	0	0	3	0.0388123423	20	0;
	2	0	0	3	0.0388123423	20	0;
	2	0	0	3	0.0388123423	20	0;
	2	0	0	3	0.0388123423	20	0;
	2	0	0	3	0.0388123423	20	0;
	2	0	0	3	0.0388123423	20	0;
	2	0	0	3	0.0388123423	20	0;
	2	0	0	3	0.0430274085	20	0;
	2	0	0	3	0.0388123423	20	0;
	2	0	0	3	0.0388123423	20	0;
	2	0	0	3	0.0284640783	20	0;
	2	0	0	3	0.0388123423	20	0;
	2	0	0	3	0.0134311118	20	0;
	2	0	0	3	0.00720248342	20	0;
	2	0	0	3	0.0136163723	20	0;
	2	0	0	3	0.092506938	20	0;
	2	0	0	3	0.0138846464	20	0;
	2	0	0	3	0.092506938	20	0;
	2	0	0	3	0.0388123423	20	0;
	2	0	0	3	0.013654114	20	0;
	2	0	0	3	0.0471364601	20	0;
	2	0	0	3	0.0388123423	20	0;
	2	0	0	3	0.0388123423	20	0;
	2	0	0	3	0.0388123423	20	0;
	2	0	0	3	0.00756315232	20	0;
	2	0	0	3	0.0388123423	20	0;
	2	0	0	3	0.0388123423	20	0;
	2	0	0	3	0.0388123423	20	0;
	2	0	0	3	0.0144400162	20	0;
	2	0	0	3	0.0351567993	20	0;
	2	0	0	3	0.0388123423	20	0;
	2	0	0	3	0.0172505995	20	0;
	2	0	0	3	0.129836406	20	0;
	2	0	0	3	0.0388123423	20	0;
	2	0	0	3	0.0196560197	20	0;
	2	0	0	3	0.0260586319	20	0;
	2	0	0	3	0.0317581301	20	0;
	2	0	0	3	0.00272216249	20	0;
	2	0	0	3	0.0152597204	20	0;
	2	0	0	3	0.0614175163	20	0;
	2	0	0	3	0.00587827273	20	0;
	2	0	0	3	0.00571657234	20	0;
	2	0	0	3	0.0145150521	20	0;
	2	0	0	3	0.00285826166	20	0;
	2	0	0	3	0.00285826166	20	0;
	2	0	0	3	0.00743151856	20	0;
	2	0	0	3	0.00571657234	20	0;
	2	0	0	3	0.0170534968	20	0;
	2	0	0	3	0.0135200909	20	0;
	2	0	0	3	0.0145150521	20	0;
	2	0	0	3	0.0743162901	20	0;
	2	0	0	3	0.00635166636	20	0;
	2	0	0	3	0.0148630371	20	0;
	2	0	0	3	0.00971439674	20	0;
	2	0	0	3	0.0145150521	20	0;
	2	0	0	3	0.00571657234	20	0;
	2	0	0	3	0.0202494735	20	0;
	2	0	0	3	0.0145150521	20	0;
	2	0	0	3	0.0130298253	20	0;
	2	0	0	3	0.0041286146	20	0;
	2	0	0	3	0.0082572292	20	0;
	2	0	0	3	0.00571657234	20	0;
	2	0	0	3	0.0041286146	20	0;
	2	0	0	3	0.0330283714	20	0;
	2	0	0	3	0.0599340725	20	0;
	2	0	0	3	0.0145150521	20	0;
	2	0	0	3	0.00512515632	20	0;
	2	0	0	3	0.0145150521	20	0;
	2	0	0	3	0.0040609302	20	0;
	2	0	0	3	0.0145150521	20	0;
	2	0	0	3	0.0148630371	20	0;
	2	0	0	3	0.00571657234	20	0;
	2	0	0	3	0.0145150521	20	0;
	2	0	0	3	0.0145150521	20	0;
	2	0	0	3	0.0145150521	20	0;
	2	0	0	3	0.0145150521	20	0;
	2	0	0	3	0.0041286146	20	0;
	2	0	0	3	0.0145150521	20	0;
	2	0	0	3	0.0743162901	20	0;
	2	0	0	3	0.0145150521	20	0;
	2	0	0	3	0.0143965679	20	0;
	2	0	0	3	0.0145150521	20	0;
	2	0	0	3	0.0123365408	20	0;
	2	0	0	3	0.0145150521	20	0;
	2	0	0	3	0.00571657234	20	0;
	2	0	0	3	0.0145150521	20	0;
	2	0	0	3	0.0145150521	20	0;
	2	0	0	3	0.0145150521	20	0;
	2	0	0	3	0.00571657234	20	0;
	2	0	0	3	0.0297265161	20	0;
	2	0	0	3	0.0145150521	20	0;
	2	0	0	3	0.0297265161	20	0;
	2	0	0	3	0.0145150521	20	0;
	2	0	0	3	0.0145150521	20	0;
	2	0	0	3	0.00318746434	20	0;
	2	0	0	3	0.0252946831	20	0;
	2	0	0	3	0.0209463564	20	0;
	2	0	0	3	0.0664010624	20	0;
	2	0	0	3	0.0191592903	20	0;
	2	0	0	3	0.00448340021	20	0;
	2	0	0	3	0.0319223648	20	0;
	2	0	0	3	0.0512741629	20	0;
	2	0	0	3	0.011408883	20	0;
	2	0	0	3	0.111644524	20	0;
	2	0	0	3	0.0520697735	20	0;
	2	0	0	3	0.0250588884	20	0;
	2	0	0	3	0.0101348955	20	0;
	2	0	0	3	0.202183583	20	0;
	2	0	0	3	0.0702049986	20	0;
	2	0	0	3	0.056954095	20	0;
	2	0	0	3	0.0687710611	20	0;
	2	0	0	3	0.0374910959	20	0;
	2	0	0	3	0.0833750208	20	0;
	2	0	0	3	0.114626318	20	0;
	2	0	0	3	0.0702099277	20	0;
	2	0	0	3	0.0396447827	20	0;
	2	0	0	3	0.0394897919	20	0;
	2	0	0	3	0.137551582	20	0;
	2	0	0	3	0.149790294	20	0;
	2	0	0	3	0.0792895655	20	0;
	2	0	0	3	0.0561639989	20	0;
	2	0	0	3	0.0567955927	20	0;
	2	0	0	3	0.0496770989	20	0;
	2	0	0	3	0.0123211887	20	0;
	2	0	0	3	0.0788581342	20	0;
	2	0	0	3	0.0116570496	20	0;
	2	0	0	3	0.246548323	20	0;
	2	0	0	3	0.202142713	20	0;
	2	0	0	3	0.01	40	0;
	2	0	0	3	0.01	40	0;
	2	0	0	3	0.0193061374	20	0;
	2	0	0	3	0.0182601709	20	0;
	2	0	0	3	0.0260973955	20	0;
	2	0	0	3	0.00877031424	20	0;
	2	0	0	3	0.0318816553	20	0;
	2	0	0	3	0.00700481231	20	0;
	2	0	0	3	0.00983013526	20	0;
	2	0	0	3	0.013106847	20	0;
	2	0	0	3	0.00921574048	20	0;
	2	0	0	3	0.0311759571	20	0;
	2	0	0	3	0.0354760891	20	0;
	2	0	0	3	0.0186577607	20	0;
	2	0	0	3	0.0186577607	20	0;
	2	0	0	3	0.00906084356	20	0;
	2	0	0	3	0.0880204207	20	0;
	2	0	0	3	0.0196896905	20	0;
	2	0	0	3	0.00706329418	20	0;
	2	0	0	3	0.0160660637	20	0;
	2	0	0	3	0.0605033882	20	0;
	2	0	0	3	0.0339720071	20	0;
	2	0	0	3	0.0111515043	20	0;
	2	0	0	3	0.0215507952	20	0;
	2	0	0	3	0.0278226031	20	0;
	2	0	0	3	0.0228055372	20	0;
	2	0	0	3	0.0494168808	20	0;
	2	0	0	3	0.0107009096	20	0;
	2	0	0	3	0.02318518	20	0;
	2	0	0	3	0.02318518	20	0;
	2	0	0	3	0.0127017998	20	0;
	2	0	0	3	0.0426075841	20	0;
	2	0	0	3	0.0872752662	20	0;
	2	0	0	3	0.1614205	20	0;
	2	0	0	3	0.074649149	20	0;
	2	0	0	3	0.099009901	20	0;
...
];

% Warnings from cdf2matp conversion:
%
% ***** area data conversion not yet implemented (creating dummy area data)
% ***** Insufficient generation, setting Pmax at slack bus (bus 1) to 23518.5
% ***** MVA limit of branch 1 - 2 not given, set to 9900
% ***** MVA limit of branch 1 - 2 not given, set to 9900
% ***** MVA limit of branch 6 - 2 not given, set to 9900
% ***** MVA limit of branch 6 - 2 not given, set to 9900
% ***** MVA limit of branch 4 - 3 not given, set to 9900
% ***** MVA limit of branch 5 - 3 not given, set to 9900
% ***** MVA limit of branch 4 - 8 not given, set to 9900
% ***** MVA limit of branch 8 - 4 not given, set to 9900
% ***** MVA limit of branch 5 - 7 not given, set to 9900
% ***** MVA limit of branch 6 - 7 not given, set to 9900
% ***** MVA limit of branch 6 - 7 not given, set to 9900
% ***** MVA limit of branch 6 - 7 not given, set to 9900
% ***** MVA limit of branch 7 - 6 not given, set to 9900
% ***** MVA limit of branch 10 - 6 not given, set to 9900
% ***** MVA limit of branch 20 - 6 not given, set to 9900
% ***** MVA limit of branch 20 - 6 not given, set to 9900
% ***** MVA limit of branch 7 - 8 not given, set to 9900
% ***** MVA limit of branch 8 - 7 not given, set to 9900
% ***** MVA limit of branch 9 - 8 not given, set to 9900
% ***** MVA limit of branch 9 - 8 not given, set to 9900
% ***** MVA limit of branch 11 - 9 not given, set to 9900
% ***** MVA limit of branch 13 - 9 not given, set to 9900
% ***** MVA limit of branch 12 - 10 not given, set to 9900
% ***** MVA limit of branch 13 - 11 not given, set to 9900
% ***** MVA limit of branch 12 - 15 not given, set to 9900
% ***** MVA limit of branch 15 - 13 not given, set to 9900
% ***** MVA limit of branch 15 - 13 not given, set to 9900
% ***** MVA limit of branch 15 - 14 not given, set to 9900
% ***** MVA limit of branch 15 - 16 not given, set to 9900
% ***** MVA limit of branch 15 - 17 not given, set to 9900
% ***** MVA limit of branch 17 - 16 not given, set to 9900
% ***** MVA limit of branch 20 - 17 not given, set to 9900
% ***** MVA limit of branch 20 - 17 not given, set to 9900
% ***** MVA limit of branch 19 - 18 not given, set to 9900
% ***** MVA limit of branch 20 - 19 not given, set to 9900
% ***** MVA limit of branch 20 - 21 not given, set to 9900
% ***** MVA limit of branch 20 - 21 not given, set to 9900
% ***** MVA limit of branch 21 - 20 not given, set to 9900
% ***** MVA limit of branch 22 - 20 not given, set to 9900
% ***** MVA limit of branch 20 - 23 not given, set to 9900
% ***** MVA limit of branch 22 - 21 not given, set to 9900
% ***** MVA limit of branch 23 - 21 not given, set to 9900
% ***** MVA limit of branch 24 - 23 not given, set to 9900
% ***** MVA limit of branch 24 - 23 not given, set to 9900
% ***** MVA limit of branch 27 - 25 not given, set to 9900
% ***** MVA limit of branch 27 - 25 not given, set to 9900
% ***** MVA limit of branch 26 - 28 not given, set to 9900
% ***** MVA limit of branch 31 - 26 not given, set to 9900
% ***** MVA limit of branch 29 - 27 not given, set to 9900
% ***** MVA limit of branch 69 - 27 not given, set to 9900
% ***** MVA limit of branch 28 - 31 not given, set to 9900
% ***** MVA limit of branch 29 - 34 not given, set to 9900
% ***** MVA limit of branch 29 - 36 not given, set to 9900
% ***** MVA limit of branch 29 - 40 not given, set to 9900
% ***** MVA limit of branch 29 - 46 not given, set to 9900
% ***** MVA limit of branch 29 - 61 not given, set to 9900
% ***** MVA limit of branch 29 - 79 not given, set to 9900
% ***** MVA limit of branch 31 - 30 not given, set to 9900
% ***** MVA limit of branch 35 - 30 not given, set to 9900
% ***** MVA limit of branch 35 - 30 not given, set to 9900
% ***** MVA limit of branch 31 - 32 not given, set to 9900
% ***** MVA limit of branch 33 - 31 not given, set to 9900
% ***** MVA limit of branch 31 - 47 not given, set to 9900
% ***** MVA limit of branch 31 - 51 not given, set to 9900
% ***** MVA limit of branch 32 - 51 not given, set to 9900
% ***** MVA limit of branch 38 - 35 not given, set to 9900
% ***** MVA limit of branch 42 - 35 not given, set to 9900
% ***** MVA limit of branch 43 - 37 not given, set to 9900
% ***** MVA limit of branch 37 - 45 not given, set to 9900
% ***** MVA limit of branch 37 - 45 not given, set to 9900
% ***** MVA limit of branch 37 - 49 not given, set to 9900
% ***** MVA limit of branch 42 - 38 not given, set to 9900
% ***** MVA limit of branch 38 - 64 not given, set to 9900
% ***** MVA limit of branch 43 - 39 not given, set to 9900
% ***** MVA limit of branch 49 - 39 not given, set to 9900
% ***** MVA limit of branch 49 - 39 not given, set to 9900
% ***** MVA limit of branch 44 - 40 not given, set to 9900
% ***** MVA limit of branch 45 - 41 not given, set to 9900
% ***** MVA limit of branch 41 - 48 not given, set to 9900
% ***** MVA limit of branch 54 - 42 not given, set to 9900
% ***** MVA limit of branch 57 - 42 not given, set to 9900
% ***** MVA limit of branch 45 - 60 not given, set to 9900
% ***** MVA limit of branch 45 - 64 not given, set to 9900
% ***** MVA limit of branch 70 - 45 not given, set to 9900
% ***** MVA limit of branch 45 - 88 not given, set to 9900
% ***** MVA limit of branch 55 - 46 not given, set to 9900
% ***** MVA limit of branch 47 - 63 not given, set to 9900
% ***** MVA limit of branch 48 - 49 not given, set to 9900
% ***** MVA limit of branch 48 - 59 not given, set to 9900
% ***** MVA limit of branch 58 - 49 not given, set to 9900
% ***** MVA limit of branch 59 - 49 not given, set to 9900
% ***** MVA limit of branch 64 - 49 not given, set to 9900
% ***** MVA limit of branch 49 - 65 not given, set to 9900
% ***** MVA limit of branch 49 - 65 not given, set to 9900
% ***** MVA limit of branch 63 - 50 not given, set to 9900
% ***** MVA limit of branch 51 - 54 not given, set to 9900
% ***** MVA limit of branch 63 - 51 not given, set to 9900
% ***** MVA limit of branch 105 - 51 not given, set to 9900
% ***** MVA limit of branch 56 - 52 not given, set to 9900
% ***** MVA limit of branch 69 - 53 not given, set to 9900
% ***** MVA limit of branch 54 - 70 not given, set to 9900
% ***** MVA limit of branch 55 - 74 not given, set to 9900
% ***** MVA limit of branch 57 - 56 not given, set to 9900
% ***** MVA limit of branch 56 - 88 not given, set to 9900
% ***** MVA limit of branch 59 - 58 not given, set to 9900
% ***** MVA limit of branch 59 - 95 not given, set to 9900
% ***** MVA limit of branch 88 - 60 not given, set to 9900
% ***** MVA limit of branch 61 - 63 not given, set to 9900
% ***** MVA limit of branch 79 - 61 not given, set to 9900
% ***** MVA limit of branch 61 - 80 not given, set to 9900
% ***** MVA limit of branch 67 - 62 not given, set to 9900
% ***** MVA limit of branch 63 - 69 not given, set to 9900
% ***** MVA limit of branch 63 - 73 not given, set to 9900
% ***** MVA limit of branch 76 - 63 not given, set to 9900
% ***** MVA limit of branch 80 - 63 not given, set to 9900
% ***** MVA limit of branch 63 - 105 not given, set to 9900
% ***** MVA limit of branch 64 - 67 not given, set to 9900
% ***** MVA limit of branch 70 - 64 not given, set to 9900
% ***** MVA limit of branch 64 - 95 not given, set to 9900
% ***** MVA limit of branch 97 - 64 not given, set to 9900
% ***** MVA limit of branch 65 - 77 not given, set to 9900
% ***** MVA limit of branch 82 - 65 not given, set to 9900
% ***** MVA limit of branch 66 - 86 not given, set to 9900
% ***** MVA limit of branch 67 - 85 not given, set to 9900
% ***** MVA limit of branch 88 - 67 not given, set to 9900
% ***** MVA limit of branch 68 - 69 not given, set to 9900
% ***** MVA limit of branch 69 - 73 not given, set to 9900
% ***** MVA limit of branch 69 - 105 not given, set to 9900
% ***** MVA limit of branch 69 - 105 not given, set to 9900
% ***** MVA limit of branch 105 - 69 not given, set to 9900
% ***** MVA limit of branch 73 - 70 not given, set to 9900
% ***** MVA limit of branch 73 - 70 not given, set to 9900
% ***** MVA limit of branch 70 - 95 not given, set to 9900
% ***** MVA limit of branch 79 - 71 not given, set to 9900
% ***** MVA limit of branch 80 - 71 not given, set to 9900
% ***** MVA limit of branch 80 - 71 not given, set to 9900
% ***** MVA limit of branch 72 - 83 not given, set to 9900
% ***** MVA limit of branch 74 - 79 not given, set to 9900
% ***** MVA limit of branch 74 - 79 not given, set to 9900
% ***** MVA limit of branch 77 - 75 not given, set to 9900
% ***** MVA limit of branch 75 - 84 not given, set to 9900
% ***** MVA limit of branch 75 - 107 not given, set to 9900
% ***** MVA limit of branch 80 - 76 not given, set to 9900
% ***** MVA limit of branch 78 - 115 not given, set to 9900
% ***** MVA limit of branch 79 - 80 not given, set to 9900
% ***** MVA limit of branch 80 - 87 not given, set to 9900
% ***** MVA limit of branch 80 - 91 not given, set to 9900
% ***** MVA limit of branch 80 - 98 not given, set to 9900
% ***** MVA limit of branch 84 - 81 not given, set to 9900
% ***** MVA limit of branch 97 - 82 not given, set to 9900
% ***** MVA limit of branch 83 - 93 not given, set to 9900
% ***** MVA limit of branch 83 - 96 not given, set to 9900
% ***** MVA limit of branch 93 - 84 not given, set to 9900
% ***** MVA limit of branch 85 - 89 not given, set to 9900
% ***** MVA limit of branch 90 - 86 not given, set to 9900
% ***** MVA limit of branch 93 - 86 not given, set to 9900
% ***** MVA limit of branch 87 - 92 not given, set to 9900
% ***** MVA limit of branch 88 - 99 not given, set to 9900
% ***** MVA limit of branch 99 - 88 not given, set to 9900
% ***** MVA limit of branch 89 - 94 not given, set to 9900
% ***** MVA limit of branch 90 - 103 not given, set to 9900
% ***** MVA limit of branch 92 - 105 not given, set to 9900
% ***** MVA limit of branch 93 - 118 not given, set to 9900
% ***** MVA limit of branch 122 - 93 not given, set to 9900
% ***** MVA limit of branch 94 - 97 not given, set to 9900
% ***** MVA limit of branch 95 - 105 not given, set to 9900
% ***** MVA limit of branch 127 - 95 not given, set to 9900
% ***** MVA limit of branch 127 - 95 not given, set to 9900
% ***** MVA limit of branch 95 - 146 not given, set to 9900
% ***** MVA limit of branch 106 - 96 not given, set to 9900
% ***** MVA limit of branch 97 - 104 not given, set to 9900
% ***** MVA limit of branch 107 - 97 not given, set to 9900
% ***** MVA limit of branch 116 - 98 not given, set to 9900
% ***** MVA limit of branch 99 - 105 not given, set to 9900
% ***** MVA limit of branch 105 - 99 not given, set to 9900
% ***** MVA limit of branch 101 - 100 not given, set to 9900
% ***** MVA limit of branch 101 - 111 not given, set to 9900
% ***** MVA limit of branch 122 - 101 not given, set to 9900
% ***** MVA limit of branch 102 - 110 not given, set to 9900
% ***** MVA limit of branch 103 - 128 not given, set to 9900
% ***** MVA limit of branch 104 - 108 not given, set to 9900
% ***** MVA limit of branch 104 - 110 not given, set to 9900
% ***** MVA limit of branch 104 - 120 not given, set to 9900
% ***** MVA limit of branch 105 - 109 not given, set to 9900
% ***** MVA limit of branch 114 - 105 not given, set to 9900
% ***** MVA limit of branch 105 - 116 not given, set to 9900
% ***** MVA limit of branch 123 - 105 not given, set to 9900
% ***** MVA limit of branch 105 - 140 not given, set to 9900
% ***** MVA limit of branch 105 - 146 not given, set to 9900
% ***** MVA limit of branch 106 - 115 not given, set to 9900
% ***** MVA limit of branch 107 - 119 not given, set to 9900
% ***** MVA limit of branch 107 - 119 not given, set to 9900
% ***** MVA limit of branch 107 - 131 not given, set to 9900
% ***** MVA limit of branch 136 - 107 not given, set to 9900
% ***** MVA limit of branch 108 - 119 not given, set to 9900
% ***** MVA limit of branch 116 - 109 not given, set to 9900
% ***** MVA limit of branch 142 - 109 not given, set to 9900
% ***** MVA limit of branch 111 - 115 not given, set to 9900
% ***** MVA limit of branch 113 - 112 not given, set to 9900
% ***** MVA limit of branch 113 - 112 not given, set to 9900
% ***** MVA limit of branch 114 - 113 not given, set to 9900
% ***** MVA limit of branch 114 - 127 not given, set to 9900
% ***** MVA limit of branch 114 - 127 not given, set to 9900
% ***** MVA limit of branch 114 - 135 not given, set to 9900
% ***** MVA limit of branch 118 - 115 not given, set to 9900
% ***** MVA limit of branch 122 - 115 not given, set to 9900
% ***** MVA limit of branch 132 - 115 not given, set to 9900
% ***** MVA limit of branch 138 - 115 not given, set to 9900
% ***** MVA limit of branch 116 - 125 not given, set to 9900
% ***** MVA limit of branch 127 - 116 not given, set to 9900
% ***** MVA limit of branch 116 - 147 not given, set to 9900
% ***** MVA limit of branch 117 - 124 not given, set to 9900
% ***** MVA limit of branch 128 - 117 not given, set to 9900
% ***** MVA limit of branch 118 - 122 not given, set to 9900
% ***** MVA limit of branch 118 - 129 not given, set to 9900
% ***** MVA limit of branch 141 - 118 not given, set to 9900
% ***** MVA limit of branch 119 - 121 not given, set to 9900
% ***** MVA limit of branch 121 - 131 not given, set to 9900
% ***** MVA limit of branch 122 - 126 not given, set to 9900
% ***** MVA limit of branch 128 - 122 not given, set to 9900
% ***** MVA limit of branch 129 - 122 not given, set to 9900
% ***** MVA limit of branch 122 - 130 not given, set to 9900
% ***** MVA limit of branch 132 - 122 not given, set to 9900
% ***** MVA limit of branch 131 - 123 not given, set to 9900
% ***** MVA limit of branch 124 - 137 not given, set to 9900
% ***** MVA limit of branch 133 - 127 not given, set to 9900
% ***** MVA limit of branch 133 - 127 not given, set to 9900
% ***** MVA limit of branch 127 - 135 not given, set to 9900
% ***** MVA limit of branch 128 - 131 not given, set to 9900
% ***** MVA limit of branch 131 - 128 not given, set to 9900
% ***** MVA limit of branch 128 - 138 not given, set to 9900
% ***** MVA limit of branch 134 - 129 not given, set to 9900
% ***** MVA limit of branch 138 - 129 not given, set to 9900
% ***** MVA limit of branch 130 - 137 not given, set to 9900
% ***** MVA limit of branch 139 - 131 not given, set to 9900
% ***** MVA limit of branch 131 - 143 not given, set to 9900
% ***** MVA limit of branch 139 - 132 not given, set to 9900
% ***** MVA limit of branch 133 - 164 not given, set to 9900
% ***** MVA limit of branch 141 - 134 not given, set to 9900
% ***** MVA limit of branch 136 - 138 not given, set to 9900
% ***** MVA limit of branch 136 - 159 not given, set to 9900
% ***** MVA limit of branch 138 - 141 not given, set to 9900
% ***** MVA limit of branch 141 - 138 not given, set to 9900
% ***** MVA limit of branch 147 - 140 not given, set to 9900
% ***** MVA limit of branch 150 - 141 not given, set to 9900
% ***** MVA limit of branch 149 - 142 not given, set to 9900
% ***** MVA limit of branch 154 - 144 not given, set to 9900
% ***** MVA limit of branch 168 - 144 not given, set to 9900
% ***** MVA limit of branch 145 - 146 not given, set to 9900
% ***** MVA limit of branch 145 - 147 not given, set to 9900
% ***** MVA limit of branch 146 - 148 not given, set to 9900
% ***** MVA limit of branch 148 - 146 not given, set to 9900
% ***** MVA limit of branch 149 - 146 not given, set to 9900
% ***** MVA limit of branch 149 - 146 not given, set to 9900
% ***** MVA limit of branch 151 - 146 not given, set to 9900
% ***** MVA limit of branch 146 - 154 not given, set to 9900
% ***** MVA limit of branch 146 - 154 not given, set to 9900
% ***** MVA limit of branch 147 - 149 not given, set to 9900
% ***** MVA limit of branch 149 - 151 not given, set to 9900
% ***** MVA limit of branch 149 - 154 not given, set to 9900
% ***** MVA limit of branch 149 - 155 not given, set to 9900
% ***** MVA limit of branch 164 - 149 not given, set to 9900
% ***** MVA limit of branch 150 - 159 not given, set to 9900
% ***** MVA limit of branch 151 - 154 not given, set to 9900
% ***** MVA limit of branch 151 - 158 not given, set to 9900
% ***** MVA limit of branch 160 - 151 not given, set to 9900
% ***** MVA limit of branch 162 - 151 not given, set to 9900
% ***** MVA limit of branch 166 - 151 not given, set to 9900
% ***** MVA limit of branch 154 - 152 not given, set to 9900
% ***** MVA limit of branch 166 - 153 not given, set to 9900
% ***** MVA limit of branch 154 - 156 not given, set to 9900
% ***** MVA limit of branch 157 - 154 not given, set to 9900
% ***** MVA limit of branch 164 - 154 not given, set to 9900
% ***** MVA limit of branch 168 - 154 not given, set to 9900
% ***** MVA limit of branch 172 - 154 not given, set to 9900
% ***** MVA limit of branch 155 - 166 not given, set to 9900
% ***** MVA limit of branch 160 - 156 not given, set to 9900
% ***** MVA limit of branch 163 - 157 not given, set to 9900
% ***** MVA limit of branch 157 - 174 not given, set to 9900
% ***** MVA limit of branch 158 - 168 not given, set to 9900
% ***** MVA limit of branch 159 - 170 not given, set to 9900
% ***** MVA limit of branch 159 - 172 not given, set to 9900
% ***** MVA limit of branch 159 - 172 not given, set to 9900
% ***** MVA limit of branch 160 - 167 not given, set to 9900
% ***** MVA limit of branch 171 - 160 not given, set to 9900
% ***** MVA limit of branch 166 - 161 not given, set to 9900
% ***** MVA limit of branch 169 - 161 not given, set to 9900
% ***** MVA limit of branch 163 - 165 not given, set to 9900
% ***** MVA limit of branch 169 - 163 not given, set to 9900
% ***** MVA limit of branch 188 - 164 not given, set to 9900
% ***** MVA limit of branch 164 - 193 not given, set to 9900
% ***** MVA limit of branch 178 - 166 not given, set to 9900
% ***** MVA limit of branch 173 - 167 not given, set to 9900
% ***** MVA limit of branch 175 - 168 not given, set to 9900
% ***** MVA limit of branch 168 - 180 not given, set to 9900
% ***** MVA limit of branch 172 - 170 not given, set to 9900
% ***** MVA limit of branch 171 - 179 not given, set to 9900
% ***** MVA limit of branch 172 - 175 not given, set to 9900
% ***** MVA limit of branch 172 - 175 not given, set to 9900
% ***** MVA limit of branch 172 - 175 not given, set to 9900
% ***** MVA limit of branch 176 - 172 not given, set to 9900
% ***** MVA limit of branch 181 - 173 not given, set to 9900
% ***** MVA limit of branch 193 - 174 not given, set to 9900
% ***** MVA limit of branch 174 - 199 not given, set to 9900
% ***** MVA limit of branch 176 - 175 not given, set to 9900
% ***** MVA limit of branch 175 - 177 not given, set to 9900
% ***** MVA limit of branch 183 - 175 not given, set to 9900
% ***** MVA limit of branch 175 - 189 not given, set to 9900
% ***** MVA limit of branch 183 - 176 not given, set to 9900
% ***** MVA limit of branch 199 - 178 not given, set to 9900
% ***** MVA limit of branch 182 - 179 not given, set to 9900
% ***** MVA limit of branch 180 - 185 not given, set to 9900
% ***** MVA limit of branch 181 - 182 not given, set to 9900
% ***** MVA limit of branch 181 - 184 not given, set to 9900
% ***** MVA limit of branch 183 - 186 not given, set to 9900
% ***** MVA limit of branch 183 - 189 not given, set to 9900
% ***** MVA limit of branch 201 - 183 not given, set to 9900
% ***** MVA limit of branch 187 - 184 not given, set to 9900
% ***** MVA limit of branch 194 - 184 not given, set to 9900
% ***** MVA limit of branch 185 - 192 not given, set to 9900
% ***** MVA limit of branch 191 - 187 not given, set to 9900
% ***** MVA limit of branch 188 - 190 not given, set to 9900
% ***** MVA limit of branch 188 - 199 not given, set to 9900
% ***** MVA limit of branch 189 - 197 not given, set to 9900
% ***** MVA limit of branch 191 - 193 not given, set to 9900
% ***** MVA limit of branch 195 - 191 not given, set to 9900
% ***** MVA limit of branch 207 - 192 not given, set to 9900
% ***** MVA limit of branch 194 - 193 not given, set to 9900
% ***** MVA limit of branch 193 - 208 not given, set to 9900
% ***** MVA limit of branch 204 - 194 not given, set to 9900
% ***** MVA limit of branch 199 - 195 not given, set to 9900
% ***** MVA limit of branch 196 - 201 not given, set to 9900
% ***** MVA limit of branch 197 - 198 not given, set to 9900
% ***** MVA limit of branch 198 - 201 not given, set to 9900
% ***** MVA limit of branch 202 - 199 not given, set to 9900
% ***** MVA limit of branch 202 - 199 not given, set to 9900
% ***** MVA limit of branch 199 - 203 not given, set to 9900
% ***** MVA limit of branch 199 - 203 not given, set to 9900
% ***** MVA limit of branch 199 - 203 not given, set to 9900
% ***** MVA limit of branch 200 - 201 not given, set to 9900
% ***** MVA limit of branch 207 - 200 not given, set to 9900
% ***** MVA limit of branch 203 - 212 not given, set to 9900
% ***** MVA limit of branch 203 - 214 not given, set to 9900
% ***** MVA limit of branch 203 - 215 not given, set to 9900
% ***** MVA limit of branch 205 - 204 not given, set to 9900
% ***** MVA limit of branch 204 - 206 not given, set to 9900
% ***** MVA limit of branch 205 - 207 not given, set to 9900
% ***** MVA limit of branch 208 - 205 not given, set to 9900
% ***** MVA limit of branch 208 - 205 not given, set to 9900
% ***** MVA limit of branch 206 - 211 not given, set to 9900
% ***** MVA limit of branch 208 - 210 not given, set to 9900
% ***** MVA limit of branch 215 - 208 not given, set to 9900
% ***** MVA limit of branch 215 - 208 not given, set to 9900
% ***** MVA limit of branch 211 - 209 not given, set to 9900
% ***** MVA limit of branch 213 - 210 not given, set to 9900
% ***** MVA limit of branch 212 - 215 not given, set to 9900
% ***** MVA limit of branch 215 - 213 not given, set to 9900
% ***** MVA limit of branch 214 - 215 not given, set to 9900
% ***** MVA limit of branch 215 - 216 not given, set to 9900
% ***** MVA limit of branch 218 - 217 not given, set to 9900
% ***** MVA limit of branch 218 - 219 not given, set to 9900
% ***** MVA limit of branch 218 - 221 not given, set to 9900
% ***** MVA limit of branch 218 - 222 not given, set to 9900
% ***** MVA limit of branch 227 - 218 not given, set to 9900
% ***** MVA limit of branch 223 - 219 not given, set to 9900
% ***** MVA limit of branch 232 - 219 not given, set to 9900
% ***** MVA limit of branch 221 - 220 not given, set to 9900
% ***** MVA limit of branch 221 - 222 not given, set to 9900
% ***** MVA limit of branch 222 - 224 not given, set to 9900
% ***** MVA limit of branch 224 - 222 not given, set to 9900
% ***** MVA limit of branch 224 - 222 not given, set to 9900
% ***** MVA limit of branch 222 - 225 not given, set to 9900
% ***** MVA limit of branch 225 - 222 not given, set to 9900
% ***** MVA limit of branch 232 - 222 not given, set to 9900
% ***** MVA limit of branch 223 - 232 not given, set to 9900
% ***** MVA limit of branch 224 - 226 not given, set to 9900
% ***** MVA limit of branch 224 - 226 not given, set to 9900
% ***** MVA limit of branch 224 - 233 not given, set to 9900
% ***** MVA limit of branch 233 - 224 not given, set to 9900
% ***** MVA limit of branch 224 - 237 not given, set to 9900
% ***** MVA limit of branch 225 - 227 not given, set to 9900
% ***** MVA limit of branch 225 - 239 not given, set to 9900
% ***** MVA limit of branch 226 - 230 not given, set to 9900
% ***** MVA limit of branch 227 - 232 not given, set to 9900
% ***** MVA limit of branch 239 - 227 not given, set to 9900
% ***** MVA limit of branch 229 - 232 not given, set to 9900
% ***** MVA limit of branch 237 - 230 not given, set to 9900
% ***** MVA limit of branch 231 - 232 not given, set to 9900
% ***** MVA limit of branch 238 - 231 not given, set to 9900
% ***** MVA limit of branch 232 - 236 not given, set to 9900
% ***** MVA limit of branch 232 - 264 not given, set to 9900
% ***** MVA limit of branch 264 - 232 not given, set to 9900
% ***** MVA limit of branch 233 - 241 not given, set to 9900
% ***** MVA limit of branch 233 - 243 not given, set to 9900
% ***** MVA limit of branch 240 - 234 not given, set to 9900
% ***** MVA limit of branch 235 - 238 not given, set to 9900
% ***** MVA limit of branch 238 - 235 not given, set to 9900
% ***** MVA limit of branch 239 - 237 not given, set to 9900
% ***** MVA limit of branch 239 - 237 not given, set to 9900
% ***** MVA limit of branch 237 - 259 not given, set to 9900
% ***** MVA limit of branch 242 - 238 not given, set to 9900
% ***** MVA limit of branch 238 - 258 not given, set to 9900
% ***** MVA limit of branch 238 - 260 not given, set to 9900
% ***** MVA limit of branch 238 - 261 not given, set to 9900
% ***** MVA limit of branch 238 - 264 not given, set to 9900
% ***** MVA limit of branch 247 - 239 not given, set to 9900
% ***** MVA limit of branch 239 - 249 not given, set to 9900
% ***** MVA limit of branch 239 - 251 not given, set to 9900
% ***** MVA limit of branch 240 - 241 not given, set to 9900
% ***** MVA limit of branch 241 - 254 not given, set to 9900
% ***** MVA limit of branch 241 - 255 not given, set to 9900
% ***** MVA limit of branch 242 - 246 not given, set to 9900
% ***** MVA limit of branch 243 - 262 not given, set to 9900
% ***** MVA limit of branch 244 - 255 not given, set to 9900
% ***** MVA limit of branch 255 - 244 not given, set to 9900
% ***** MVA limit of branch 246 - 245 not given, set to 9900
% ***** MVA limit of branch 245 - 258 not given, set to 9900
% ***** MVA limit of branch 246 - 258 not given, set to 9900
% ***** MVA limit of branch 247 - 264 not given, set to 9900
% ***** MVA limit of branch 248 - 258 not given, set to 9900
% ***** MVA limit of branch 249 - 256 not given, set to 9900
% ***** MVA limit of branch 250 - 266 not given, set to 9900
% ***** MVA limit of branch 305 - 250 not given, set to 9900
% ***** MVA limit of branch 252 - 259 not given, set to 9900
% ***** MVA limit of branch 258 - 253 not given, set to 9900
% ***** MVA limit of branch 253 - 268 not given, set to 9900
% ***** MVA limit of branch 254 - 255 not given, set to 9900
% ***** MVA limit of branch 254 - 255 not given, set to 9900
% ***** MVA limit of branch 254 - 278 not given, set to 9900
% ***** MVA limit of branch 255 - 257 not given, set to 9900
% ***** MVA limit of branch 255 - 257 not given, set to 9900
% ***** MVA limit of branch 255 - 278 not given, set to 9900
% ***** MVA limit of branch 255 - 278 not given, set to 9900
% ***** MVA limit of branch 256 - 264 not given, set to 9900
% ***** MVA limit of branch 256 - 272 not given, set to 9900
% ***** MVA limit of branch 256 - 289 not given, set to 9900
% ***** MVA limit of branch 257 - 263 not given, set to 9900
% ***** MVA limit of branch 257 - 287 not given, set to 9900
% ***** MVA limit of branch 258 - 265 not given, set to 9900
% ***** MVA limit of branch 258 - 269 not given, set to 9900
% ***** MVA limit of branch 258 - 277 not given, set to 9900
% ***** MVA limit of branch 262 - 259 not given, set to 9900
% ***** MVA limit of branch 267 - 259 not given, set to 9900
% ***** MVA limit of branch 259 - 270 not given, set to 9900
% ***** MVA limit of branch 264 - 260 not given, set to 9900
% ***** MVA limit of branch 261 - 276 not given, set to 9900
% ***** MVA limit of branch 302 - 262 not given, set to 9900
% ***** MVA limit of branch 263 - 281 not given, set to 9900
% ***** MVA limit of branch 264 - 272 not given, set to 9900
% ***** MVA limit of branch 272 - 264 not given, set to 9900
% ***** MVA limit of branch 264 - 274 not given, set to 9900
% ***** MVA limit of branch 269 - 265 not given, set to 9900
% ***** MVA limit of branch 269 - 266 not given, set to 9900
% ***** MVA limit of branch 271 - 267 not given, set to 9900
% ***** MVA limit of branch 268 - 282 not given, set to 9900
% ***** MVA limit of branch 269 - 295 not given, set to 9900
% ***** MVA limit of branch 284 - 270 not given, set to 9900
% ***** MVA limit of branch 272 - 274 not given, set to 9900
% ***** MVA limit of branch 272 - 274 not given, set to 9900
% ***** MVA limit of branch 272 - 279 not given, set to 9900
% ***** MVA limit of branch 272 - 289 not given, set to 9900
% ***** MVA limit of branch 273 - 286 not given, set to 9900
% ***** MVA limit of branch 286 - 273 not given, set to 9900
% ***** MVA limit of branch 274 - 282 not given, set to 9900
% ***** MVA limit of branch 282 - 274 not given, set to 9900
...